
---------- Begin Simulation Statistics ----------
sim_seconds                                  6.423757                       # Number of seconds simulated
sim_ticks                                6423757026000                       # Number of ticks simulated
final_tick                               6423757026000                       # Number of ticks from beginning of simulation (restored from checkpoints and never reset)
sim_freq                                 1000000000000                       # Frequency of simulated ticks
host_inst_rate                                 255264                       # Simulator instruction rate (inst/s)
host_op_rate                                   413944                       # Simulator op (including micro ops) rate (op/s)
host_tick_rate                             3252908851                       # Simulator tick rate (ticks/s)
host_mem_usage                                 664856                       # Number of bytes of host memory used
host_seconds                                  1974.77                       # Real time elapsed on the host
sim_insts                                   504088774                       # Number of instructions simulated
sim_ops                                     817446129                       # Number of ops (including micro ops) simulated
system.voltage_domain.voltage                       1                       # Voltage in Volts
system.clk_domain.clock                          1000                       # Clock period in ticks
system.mem_ctrls.pwrStateResidencyTicks::UNDEFINED 6423757026000                       # Cumulative time (in ticks) in various power states
system.mem_ctrls.bytes_read::cpu.inst           22720                       # Number of bytes read from this memory
system.mem_ctrls.bytes_read::cpu.data        20852992                       # Number of bytes read from this memory
system.mem_ctrls.bytes_read::total           20875712                       # Number of bytes read from this memory
system.mem_ctrls.bytes_inst_read::cpu.inst        22720                       # Number of instructions bytes read from this memory
system.mem_ctrls.bytes_inst_read::total         22720                       # Number of instructions bytes read from this memory
system.mem_ctrls.bytes_written::writebacks    931552448                       # Number of bytes written to this memory
system.mem_ctrls.bytes_written::total       931552448                       # Number of bytes written to this memory
system.mem_ctrls.num_reads::cpu.inst              355                       # Number of read requests responded to by this memory
system.mem_ctrls.num_reads::cpu.data           325828                       # Number of read requests responded to by this memory
system.mem_ctrls.num_reads::total              326183                       # Number of read requests responded to by this memory
system.mem_ctrls.num_writes::writebacks      14555507                       # Number of write requests responded to by this memory
system.mem_ctrls.num_writes::total           14555507                       # Number of write requests responded to by this memory
system.mem_ctrls.bw_read::cpu.inst               3537                       # Total read bandwidth from this memory (bytes/s)
system.mem_ctrls.bw_read::cpu.data            3246230                       # Total read bandwidth from this memory (bytes/s)
system.mem_ctrls.bw_read::total               3249767                       # Total read bandwidth from this memory (bytes/s)
system.mem_ctrls.bw_inst_read::cpu.inst          3537                       # Instruction read bandwidth from this memory (bytes/s)
system.mem_ctrls.bw_inst_read::total             3537                       # Instruction read bandwidth from this memory (bytes/s)
system.mem_ctrls.bw_write::writebacks       145016763                       # Write bandwidth from this memory (bytes/s)
system.mem_ctrls.bw_write::total            145016763                       # Write bandwidth from this memory (bytes/s)
system.mem_ctrls.bw_total::writebacks       145016763                       # Total bandwidth to/from this memory (bytes/s)
system.mem_ctrls.bw_total::cpu.inst              3537                       # Total bandwidth to/from this memory (bytes/s)
system.mem_ctrls.bw_total::cpu.data           3246230                       # Total bandwidth to/from this memory (bytes/s)
system.mem_ctrls.bw_total::total            148266529                       # Total bandwidth to/from this memory (bytes/s)
system.pwrStateResidencyTicks::UNDEFINED 6423757026000                       # Cumulative time (in ticks) in various power states
system.cpu_voltage_domain.voltage                   1                       # Voltage in Volts
system.cpu_clk_domain.clock                       500                       # Clock period in ticks
system.cpu.dtb.walker.pwrStateResidencyTicks::UNDEFINED 6423757026000                       # Cumulative time (in ticks) in various power states
system.cpu.dtb.rdAccesses                   238245989                       # TLB accesses on read requests
system.cpu.dtb.wrAccesses                    64374666                       # TLB accesses on write requests
system.cpu.dtb.rdMisses                          5921                       # TLB misses on read requests
system.cpu.dtb.wrMisses                           999                       # TLB misses on write requests
system.cpu.apic_clk_domain.clock                 8000                       # Clock period in ticks
system.cpu.interrupts.pwrStateResidencyTicks::UNDEFINED 6423757026000                       # Cumulative time (in ticks) in various power states
system.cpu.itb.walker.pwrStateResidencyTicks::UNDEFINED 6423757026000                       # Cumulative time (in ticks) in various power states
system.cpu.itb.rdAccesses                           0                       # TLB accesses on read requests
system.cpu.itb.wrAccesses                   677335213                       # TLB accesses on write requests
system.cpu.itb.rdMisses                             0                       # TLB misses on read requests
system.cpu.itb.wrMisses                            36                       # TLB misses on write requests
system.cpu.workload.numSyscalls                     9                       # Number of system calls
system.cpu.pwrStateResidencyTicks::ON    6423757026000                       # Cumulative time (in ticks) in various power states
system.cpu.numCycles                      12847514052                       # number of cpu cycles simulated
system.cpu.numWorkItemsStarted                      0                       # number of work items this cpu started
system.cpu.numWorkItemsCompleted                    0                       # number of work items this cpu completed
system.cpu.committedInsts                   504088774                       # Number of instructions committed
system.cpu.committedOps                     817446129                       # Number of ops (including micro ops) committed
system.cpu.num_int_alu_accesses             812630010                       # Number of integer alu accesses
system.cpu.num_fp_alu_accesses                   1975                       # Number of float alu accesses
system.cpu.num_vec_alu_accesses                     0                       # Number of vector alu accesses
system.cpu.num_func_calls                     9452832                       # number of times a function call or return occured
system.cpu.num_conditional_control_insts     46565890                       # number of instructions that are conditional controls
system.cpu.num_int_insts                    812630010                       # number of integer instructions
system.cpu.num_fp_insts                          1975                       # number of float instructions
system.cpu.num_vec_insts                            0                       # number of vector instructions
system.cpu.num_int_register_reads          1822855649                       # number of times the integer registers were read
system.cpu.num_int_register_writes          705741308                       # number of times the integer registers were written
system.cpu.num_fp_register_reads                 3787                       # number of times the floating registers were read
system.cpu.num_fp_register_writes                1492                       # number of times the floating registers were written
system.cpu.num_vec_register_reads                   0                       # number of times the vector registers were read
system.cpu.num_vec_register_writes                  0                       # number of times the vector registers were written
system.cpu.num_cc_register_reads            297557775                       # number of times the CC registers were read
system.cpu.num_cc_register_writes           279904588                       # number of times the CC registers were written
system.cpu.num_mem_refs                     302620652                       # number of memory refs
system.cpu.num_load_insts                   238245986                       # Number of load instructions
system.cpu.num_store_insts                   64374666                       # Number of store instructions
system.cpu.num_idle_cycles                          0                       # Number of idle cycles
system.cpu.num_busy_cycles                12847514052                       # Number of busy cycles
system.cpu.not_idle_fraction                        1                       # Percentage of non-idle cycles
system.cpu.idle_fraction                            0                       # Percentage of idle cycles
system.cpu.Branches                          60772146                       # Number of branches fetched
system.cpu.op_class::No_OpClass               1362109      0.17%      0.17% # Class of executed instruction
system.cpu.op_class::IntAlu                 505014358     61.78%     61.95% # Class of executed instruction
system.cpu.op_class::IntMult                        4      0.00%     61.95% # Class of executed instruction
system.cpu.op_class::IntDiv                   8448046      1.03%     62.98% # Class of executed instruction
system.cpu.op_class::FloatAdd                      10      0.00%     62.98% # Class of executed instruction
system.cpu.op_class::FloatCmp                       0      0.00%     62.98% # Class of executed instruction
system.cpu.op_class::FloatCvt                       0      0.00%     62.98% # Class of executed instruction
system.cpu.op_class::FloatMult                      0      0.00%     62.98% # Class of executed instruction
system.cpu.op_class::FloatMultAcc                   0      0.00%     62.98% # Class of executed instruction
system.cpu.op_class::FloatDiv                       0      0.00%     62.98% # Class of executed instruction
system.cpu.op_class::FloatMisc                      0      0.00%     62.98% # Class of executed instruction
system.cpu.op_class::FloatSqrt                      0      0.00%     62.98% # Class of executed instruction
system.cpu.op_class::SimdAdd                      374      0.00%     62.98% # Class of executed instruction
system.cpu.op_class::SimdAddAcc                     0      0.00%     62.98% # Class of executed instruction
system.cpu.op_class::SimdAlu                       68      0.00%     62.98% # Class of executed instruction
system.cpu.op_class::SimdCmp                        0      0.00%     62.98% # Class of executed instruction
system.cpu.op_class::SimdCvt                      108      0.00%     62.98% # Class of executed instruction
system.cpu.op_class::SimdMisc                     214      0.00%     62.98% # Class of executed instruction
system.cpu.op_class::SimdMult                       0      0.00%     62.98% # Class of executed instruction
system.cpu.op_class::SimdMultAcc                    0      0.00%     62.98% # Class of executed instruction
system.cpu.op_class::SimdShift                    186      0.00%     62.98% # Class of executed instruction
system.cpu.op_class::SimdShiftAcc                   0      0.00%     62.98% # Class of executed instruction
system.cpu.op_class::SimdSqrt                       0      0.00%     62.98% # Class of executed instruction
system.cpu.op_class::SimdFloatAdd                   0      0.00%     62.98% # Class of executed instruction
system.cpu.op_class::SimdFloatAlu                   0      0.00%     62.98% # Class of executed instruction
system.cpu.op_class::SimdFloatCmp                   0      0.00%     62.98% # Class of executed instruction
system.cpu.op_class::SimdFloatCvt                   0      0.00%     62.98% # Class of executed instruction
system.cpu.op_class::SimdFloatDiv                   0      0.00%     62.98% # Class of executed instruction
system.cpu.op_class::SimdFloatMisc                  0      0.00%     62.98% # Class of executed instruction
system.cpu.op_class::SimdFloatMult                  0      0.00%     62.98% # Class of executed instruction
system.cpu.op_class::SimdFloatMultAcc               0      0.00%     62.98% # Class of executed instruction
system.cpu.op_class::SimdFloatSqrt                  0      0.00%     62.98% # Class of executed instruction
system.cpu.op_class::MemRead                238245918     29.15%     92.12% # Class of executed instruction
system.cpu.op_class::MemWrite                64374231      7.88%    100.00% # Class of executed instruction
system.cpu.op_class::FloatMemRead                  68      0.00%    100.00% # Class of executed instruction
system.cpu.op_class::FloatMemWrite                435      0.00%    100.00% # Class of executed instruction
system.cpu.op_class::IprAccess                      0      0.00%    100.00% # Class of executed instruction
system.cpu.op_class::InstPrefetch                   0      0.00%    100.00% # Class of executed instruction
system.cpu.op_class::total                  817446129                       # Class of executed instruction
system.cpu.dcache.tags.pwrStateResidencyTicks::UNDEFINED 6423757026000                       # Cumulative time (in ticks) in various power states
system.cpu.dcache.tags.tagsinuse           511.787990                       # Cycle average of tags in use
system.cpu.dcache.tags.total_refs           302620655                       # Total number of references to valid blocks.
system.cpu.dcache.tags.sampled_refs            682610                       # Sample count of references to valid blocks.
system.cpu.dcache.tags.avg_refs            443.328775                       # Average number of references to valid blocks.
system.cpu.dcache.tags.warmup_cycle            759000                       # Cycle when the warmup percentage was hit.
system.cpu.dcache.tags.occ_blocks::cpu.data   511.787990                       # Average occupied blocks per requestor
system.cpu.dcache.tags.occ_percent::cpu.data     0.999586                       # Average percentage of cache occupancy
system.cpu.dcache.tags.occ_percent::total     0.999586                       # Average percentage of cache occupancy
system.cpu.dcache.tags.occ_task_id_blocks::1024          512                       # Occupied blocks per task id
system.cpu.dcache.tags.age_task_id_blocks_1024::0           10                       # Occupied blocks per task id
system.cpu.dcache.tags.age_task_id_blocks_1024::1           19                       # Occupied blocks per task id
system.cpu.dcache.tags.age_task_id_blocks_1024::3           54                       # Occupied blocks per task id
system.cpu.dcache.tags.age_task_id_blocks_1024::4          429                       # Occupied blocks per task id
system.cpu.dcache.tags.occ_task_id_percent::1024            1                       # Percentage of cache occupancy per task id
system.cpu.dcache.tags.tag_accesses         605923920                       # Number of tag accesses
system.cpu.dcache.tags.data_accesses        605923920                       # Number of data accesses
system.cpu.dcache.pwrStateResidencyTicks::UNDEFINED 6423757026000                       # Cumulative time (in ticks) in various power states
system.cpu.dcache.ReadReq_hits::cpu.data    237629890                       # number of ReadReq hits
system.cpu.dcache.ReadReq_hits::total       237629890                       # number of ReadReq hits
system.cpu.dcache.WriteReq_hits::cpu.data      8043615                       # number of WriteReq hits
system.cpu.dcache.WriteReq_hits::total        8043615                       # number of WriteReq hits
system.cpu.dcache.demand_hits::cpu.data     245673505                       # number of demand (read+write) hits
system.cpu.dcache.demand_hits::total        245673505                       # number of demand (read+write) hits
system.cpu.dcache.overall_hits::cpu.data    245673505                       # number of overall hits
system.cpu.dcache.overall_hits::total       245673505                       # number of overall hits
system.cpu.dcache.ReadReq_misses::cpu.data       616099                       # number of ReadReq misses
system.cpu.dcache.ReadReq_misses::total        616099                       # number of ReadReq misses
system.cpu.dcache.WriteReq_misses::cpu.data     56331051                       # number of WriteReq misses
system.cpu.dcache.WriteReq_misses::total     56331051                       # number of WriteReq misses
system.cpu.dcache.demand_misses::cpu.data     56947150                       # number of demand (read+write) misses
system.cpu.dcache.demand_misses::total       56947150                       # number of demand (read+write) misses
system.cpu.dcache.overall_misses::cpu.data     56947150                       # number of overall misses
system.cpu.dcache.overall_misses::total      56947150                       # number of overall misses
system.cpu.dcache.ReadReq_miss_latency::cpu.data 191982657500                       # number of ReadReq miss cycles
system.cpu.dcache.ReadReq_miss_latency::total 191982657500                       # number of ReadReq miss cycles
system.cpu.dcache.WriteReq_miss_latency::cpu.data 5308664094000                       # number of WriteReq miss cycles
system.cpu.dcache.WriteReq_miss_latency::total 5308664094000                       # number of WriteReq miss cycles
system.cpu.dcache.demand_miss_latency::cpu.data 5500646751500                       # number of demand (read+write) miss cycles
system.cpu.dcache.demand_miss_latency::total 5500646751500                       # number of demand (read+write) miss cycles
system.cpu.dcache.overall_miss_latency::cpu.data 5500646751500                       # number of overall miss cycles
system.cpu.dcache.overall_miss_latency::total 5500646751500                       # number of overall miss cycles
system.cpu.dcache.ReadReq_accesses::cpu.data    238245989                       # number of ReadReq accesses(hits+misses)
system.cpu.dcache.ReadReq_accesses::total    238245989                       # number of ReadReq accesses(hits+misses)
system.cpu.dcache.WriteReq_accesses::cpu.data     64374666                       # number of WriteReq accesses(hits+misses)
system.cpu.dcache.WriteReq_accesses::total     64374666                       # number of WriteReq accesses(hits+misses)
system.cpu.dcache.demand_accesses::cpu.data    302620655                       # number of demand (read+write) accesses
system.cpu.dcache.demand_accesses::total    302620655                       # number of demand (read+write) accesses
system.cpu.dcache.overall_accesses::cpu.data    302620655                       # number of overall (read+write) accesses
system.cpu.dcache.overall_accesses::total    302620655                       # number of overall (read+write) accesses
system.cpu.dcache.ReadReq_miss_rate::cpu.data     0.002586                       # miss rate for ReadReq accesses
system.cpu.dcache.ReadReq_miss_rate::total     0.002586                       # miss rate for ReadReq accesses
system.cpu.dcache.WriteReq_miss_rate::cpu.data     0.875050                       # miss rate for WriteReq accesses
system.cpu.dcache.WriteReq_miss_rate::total     0.875050                       # miss rate for WriteReq accesses
system.cpu.dcache.demand_miss_rate::cpu.data     0.188180                       # miss rate for demand accesses
system.cpu.dcache.demand_miss_rate::total     0.188180                       # miss rate for demand accesses
system.cpu.dcache.overall_miss_rate::cpu.data     0.188180                       # miss rate for overall accesses
system.cpu.dcache.overall_miss_rate::total     0.188180                       # miss rate for overall accesses
system.cpu.dcache.ReadReq_avg_miss_latency::cpu.data 311610.078088                       # average ReadReq miss latency
system.cpu.dcache.ReadReq_avg_miss_latency::total 311610.078088                       # average ReadReq miss latency
system.cpu.dcache.WriteReq_avg_miss_latency::cpu.data 94240.458855                       # average WriteReq miss latency
system.cpu.dcache.WriteReq_avg_miss_latency::total 94240.458855                       # average WriteReq miss latency
system.cpu.dcache.demand_avg_miss_latency::cpu.data 96592.134137                       # average overall miss latency
system.cpu.dcache.demand_avg_miss_latency::total 96592.134137                       # average overall miss latency
system.cpu.dcache.overall_avg_miss_latency::cpu.data 96592.134137                       # average overall miss latency
system.cpu.dcache.overall_avg_miss_latency::total 96592.134137                       # average overall miss latency
system.cpu.dcache.blocked_cycles::no_mshrs            0                       # number of cycles access was blocked
system.cpu.dcache.blocked_cycles::no_targets            0                       # number of cycles access was blocked
system.cpu.dcache.blocked::no_mshrs                 0                       # number of cycles access was blocked
system.cpu.dcache.blocked::no_targets               0                       # number of cycles access was blocked
system.cpu.dcache.avg_blocked_cycles::no_mshrs          nan                       # average number of cycles each access was blocked
system.cpu.dcache.avg_blocked_cycles::no_targets          nan                       # average number of cycles each access was blocked
system.cpu.dcache.writebacks::writebacks       205629                       # number of writebacks
system.cpu.dcache.writebacks::total            205629                       # number of writebacks
system.cpu.dcache.ReadReq_mshr_misses::cpu.data       616099                       # number of ReadReq MSHR misses
system.cpu.dcache.ReadReq_mshr_misses::total       616099                       # number of ReadReq MSHR misses
system.cpu.dcache.WriteReq_mshr_misses::cpu.data     56331051                       # number of WriteReq MSHR misses
system.cpu.dcache.WriteReq_mshr_misses::total     56331051                       # number of WriteReq MSHR misses
system.cpu.dcache.demand_mshr_misses::cpu.data     56947150                       # number of demand (read+write) MSHR misses
system.cpu.dcache.demand_mshr_misses::total     56947150                       # number of demand (read+write) MSHR misses
system.cpu.dcache.overall_mshr_misses::cpu.data     56947150                       # number of overall MSHR misses
system.cpu.dcache.overall_mshr_misses::total     56947150                       # number of overall MSHR misses
system.cpu.dcache.ReadReq_mshr_miss_latency::cpu.data 191366558500                       # number of ReadReq MSHR miss cycles
system.cpu.dcache.ReadReq_mshr_miss_latency::total 191366558500                       # number of ReadReq MSHR miss cycles
system.cpu.dcache.WriteReq_mshr_miss_latency::cpu.data 5252333043000                       # number of WriteReq MSHR miss cycles
system.cpu.dcache.WriteReq_mshr_miss_latency::total 5252333043000                       # number of WriteReq MSHR miss cycles
system.cpu.dcache.demand_mshr_miss_latency::cpu.data 5443699601500                       # number of demand (read+write) MSHR miss cycles
system.cpu.dcache.demand_mshr_miss_latency::total 5443699601500                       # number of demand (read+write) MSHR miss cycles
system.cpu.dcache.overall_mshr_miss_latency::cpu.data 5443699601500                       # number of overall MSHR miss cycles
system.cpu.dcache.overall_mshr_miss_latency::total 5443699601500                       # number of overall MSHR miss cycles
system.cpu.dcache.ReadReq_mshr_miss_rate::cpu.data     0.002586                       # mshr miss rate for ReadReq accesses
system.cpu.dcache.ReadReq_mshr_miss_rate::total     0.002586                       # mshr miss rate for ReadReq accesses
system.cpu.dcache.WriteReq_mshr_miss_rate::cpu.data     0.875050                       # mshr miss rate for WriteReq accesses
system.cpu.dcache.WriteReq_mshr_miss_rate::total     0.875050                       # mshr miss rate for WriteReq accesses
system.cpu.dcache.demand_mshr_miss_rate::cpu.data     0.188180                       # mshr miss rate for demand accesses
system.cpu.dcache.demand_mshr_miss_rate::total     0.188180                       # mshr miss rate for demand accesses
system.cpu.dcache.overall_mshr_miss_rate::cpu.data     0.188180                       # mshr miss rate for overall accesses
system.cpu.dcache.overall_mshr_miss_rate::total     0.188180                       # mshr miss rate for overall accesses
system.cpu.dcache.ReadReq_avg_mshr_miss_latency::cpu.data 310610.078088                       # average ReadReq mshr miss latency
system.cpu.dcache.ReadReq_avg_mshr_miss_latency::total 310610.078088                       # average ReadReq mshr miss latency
system.cpu.dcache.WriteReq_avg_mshr_miss_latency::cpu.data 93240.458855                       # average WriteReq mshr miss latency
system.cpu.dcache.WriteReq_avg_mshr_miss_latency::total 93240.458855                       # average WriteReq mshr miss latency
system.cpu.dcache.demand_avg_mshr_miss_latency::cpu.data 95592.134137                       # average overall mshr miss latency
system.cpu.dcache.demand_avg_mshr_miss_latency::total 95592.134137                       # average overall mshr miss latency
system.cpu.dcache.overall_avg_mshr_miss_latency::cpu.data 95592.134137                       # average overall mshr miss latency
system.cpu.dcache.overall_avg_mshr_miss_latency::total 95592.134137                       # average overall mshr miss latency
system.cpu.dcache.replacements                 682098                       # number of replacements
system.cpu.dtb_walker_cache.tags.pwrStateResidencyTicks::UNDEFINED 6423757026000                       # Cumulative time (in ticks) in various power states
system.cpu.dtb_walker_cache.tags.tagsinuse            0                       # Cycle average of tags in use
system.cpu.dtb_walker_cache.tags.total_refs            0                       # Total number of references to valid blocks.
system.cpu.dtb_walker_cache.tags.sampled_refs            0                       # Sample count of references to valid blocks.
system.cpu.dtb_walker_cache.tags.avg_refs          nan                       # Average number of references to valid blocks.
system.cpu.dtb_walker_cache.tags.warmup_cycle            0                       # Cycle when the warmup percentage was hit.
system.cpu.dtb_walker_cache.tags.tag_accesses            0                       # Number of tag accesses
system.cpu.dtb_walker_cache.tags.data_accesses            0                       # Number of data accesses
system.cpu.dtb_walker_cache.pwrStateResidencyTicks::UNDEFINED 6423757026000                       # Cumulative time (in ticks) in various power states
system.cpu.dtb_walker_cache.blocked_cycles::no_mshrs            0                       # number of cycles access was blocked
system.cpu.dtb_walker_cache.blocked_cycles::no_targets            0                       # number of cycles access was blocked
system.cpu.dtb_walker_cache.blocked::no_mshrs            0                       # number of cycles access was blocked
system.cpu.dtb_walker_cache.blocked::no_targets            0                       # number of cycles access was blocked
system.cpu.dtb_walker_cache.avg_blocked_cycles::no_mshrs          nan                       # average number of cycles each access was blocked
system.cpu.dtb_walker_cache.avg_blocked_cycles::no_targets          nan                       # average number of cycles each access was blocked
system.cpu.dtb_walker_cache.replacements            0                       # number of replacements
system.cpu.icache.tags.pwrStateResidencyTicks::UNDEFINED 6423757026000                       # Cumulative time (in ticks) in various power states
system.cpu.icache.tags.tagsinuse           280.361010                       # Cycle average of tags in use
system.cpu.icache.tags.total_refs           677335213                       # Total number of references to valid blocks.
system.cpu.icache.tags.sampled_refs               355                       # Sample count of references to valid blocks.
system.cpu.icache.tags.avg_refs          1907986.515493                       # Average number of references to valid blocks.
system.cpu.icache.tags.warmup_cycle            439000                       # Cycle when the warmup percentage was hit.
system.cpu.icache.tags.occ_blocks::cpu.inst   280.361010                       # Average occupied blocks per requestor
system.cpu.icache.tags.occ_percent::cpu.inst     0.547580                       # Average percentage of cache occupancy
system.cpu.icache.tags.occ_percent::total     0.547580                       # Average percentage of cache occupancy
system.cpu.icache.tags.occ_task_id_blocks::1024          309                       # Occupied blocks per task id
system.cpu.icache.tags.age_task_id_blocks_1024::0           11                       # Occupied blocks per task id
system.cpu.icache.tags.age_task_id_blocks_1024::1           27                       # Occupied blocks per task id
system.cpu.icache.tags.age_task_id_blocks_1024::4          271                       # Occupied blocks per task id
system.cpu.icache.tags.occ_task_id_percent::1024     0.603516                       # Percentage of cache occupancy per task id
system.cpu.icache.tags.tag_accesses        1354670781                       # Number of tag accesses
system.cpu.icache.tags.data_accesses       1354670781                       # Number of data accesses
system.cpu.icache.pwrStateResidencyTicks::UNDEFINED 6423757026000                       # Cumulative time (in ticks) in various power states
system.cpu.icache.ReadReq_hits::cpu.inst    677334858                       # number of ReadReq hits
system.cpu.icache.ReadReq_hits::total       677334858                       # number of ReadReq hits
system.cpu.icache.demand_hits::cpu.inst     677334858                       # number of demand (read+write) hits
system.cpu.icache.demand_hits::total        677334858                       # number of demand (read+write) hits
system.cpu.icache.overall_hits::cpu.inst    677334858                       # number of overall hits
system.cpu.icache.overall_hits::total       677334858                       # number of overall hits
system.cpu.icache.ReadReq_misses::cpu.inst          355                       # number of ReadReq misses
system.cpu.icache.ReadReq_misses::total           355                       # number of ReadReq misses
system.cpu.icache.demand_misses::cpu.inst          355                       # number of demand (read+write) misses
system.cpu.icache.demand_misses::total            355                       # number of demand (read+write) misses
system.cpu.icache.overall_misses::cpu.inst          355                       # number of overall misses
system.cpu.icache.overall_misses::total           355                       # number of overall misses
system.cpu.icache.ReadReq_miss_latency::cpu.inst    101914500                       # number of ReadReq miss cycles
system.cpu.icache.ReadReq_miss_latency::total    101914500                       # number of ReadReq miss cycles
system.cpu.icache.demand_miss_latency::cpu.inst    101914500                       # number of demand (read+write) miss cycles
system.cpu.icache.demand_miss_latency::total    101914500                       # number of demand (read+write) miss cycles
system.cpu.icache.overall_miss_latency::cpu.inst    101914500                       # number of overall miss cycles
system.cpu.icache.overall_miss_latency::total    101914500                       # number of overall miss cycles
system.cpu.icache.ReadReq_accesses::cpu.inst    677335213                       # number of ReadReq accesses(hits+misses)
system.cpu.icache.ReadReq_accesses::total    677335213                       # number of ReadReq accesses(hits+misses)
system.cpu.icache.demand_accesses::cpu.inst    677335213                       # number of demand (read+write) accesses
system.cpu.icache.demand_accesses::total    677335213                       # number of demand (read+write) accesses
system.cpu.icache.overall_accesses::cpu.inst    677335213                       # number of overall (read+write) accesses
system.cpu.icache.overall_accesses::total    677335213                       # number of overall (read+write) accesses
system.cpu.icache.ReadReq_miss_rate::cpu.inst     0.000001                       # miss rate for ReadReq accesses
system.cpu.icache.ReadReq_miss_rate::total     0.000001                       # miss rate for ReadReq accesses
system.cpu.icache.demand_miss_rate::cpu.inst     0.000001                       # miss rate for demand accesses
system.cpu.icache.demand_miss_rate::total     0.000001                       # miss rate for demand accesses
system.cpu.icache.overall_miss_rate::cpu.inst     0.000001                       # miss rate for overall accesses
system.cpu.icache.overall_miss_rate::total     0.000001                       # miss rate for overall accesses
system.cpu.icache.ReadReq_avg_miss_latency::cpu.inst 287083.098592                       # average ReadReq miss latency
system.cpu.icache.ReadReq_avg_miss_latency::total 287083.098592                       # average ReadReq miss latency
system.cpu.icache.demand_avg_miss_latency::cpu.inst 287083.098592                       # average overall miss latency
system.cpu.icache.demand_avg_miss_latency::total 287083.098592                       # average overall miss latency
system.cpu.icache.overall_avg_miss_latency::cpu.inst 287083.098592                       # average overall miss latency
system.cpu.icache.overall_avg_miss_latency::total 287083.098592                       # average overall miss latency
system.cpu.icache.blocked_cycles::no_mshrs            0                       # number of cycles access was blocked
system.cpu.icache.blocked_cycles::no_targets            0                       # number of cycles access was blocked
system.cpu.icache.blocked::no_mshrs                 0                       # number of cycles access was blocked
system.cpu.icache.blocked::no_targets               0                       # number of cycles access was blocked
system.cpu.icache.avg_blocked_cycles::no_mshrs          nan                       # average number of cycles each access was blocked
system.cpu.icache.avg_blocked_cycles::no_targets          nan                       # average number of cycles each access was blocked
system.cpu.icache.writebacks::writebacks           46                       # number of writebacks
system.cpu.icache.writebacks::total                46                       # number of writebacks
system.cpu.icache.ReadReq_mshr_misses::cpu.inst          355                       # number of ReadReq MSHR misses
system.cpu.icache.ReadReq_mshr_misses::total          355                       # number of ReadReq MSHR misses
system.cpu.icache.demand_mshr_misses::cpu.inst          355                       # number of demand (read+write) MSHR misses
system.cpu.icache.demand_mshr_misses::total          355                       # number of demand (read+write) MSHR misses
system.cpu.icache.overall_mshr_misses::cpu.inst          355                       # number of overall MSHR misses
system.cpu.icache.overall_mshr_misses::total          355                       # number of overall MSHR misses
system.cpu.icache.ReadReq_mshr_miss_latency::cpu.inst    101559500                       # number of ReadReq MSHR miss cycles
system.cpu.icache.ReadReq_mshr_miss_latency::total    101559500                       # number of ReadReq MSHR miss cycles
system.cpu.icache.demand_mshr_miss_latency::cpu.inst    101559500                       # number of demand (read+write) MSHR miss cycles
system.cpu.icache.demand_mshr_miss_latency::total    101559500                       # number of demand (read+write) MSHR miss cycles
system.cpu.icache.overall_mshr_miss_latency::cpu.inst    101559500                       # number of overall MSHR miss cycles
system.cpu.icache.overall_mshr_miss_latency::total    101559500                       # number of overall MSHR miss cycles
system.cpu.icache.ReadReq_mshr_miss_rate::cpu.inst     0.000001                       # mshr miss rate for ReadReq accesses
system.cpu.icache.ReadReq_mshr_miss_rate::total     0.000001                       # mshr miss rate for ReadReq accesses
system.cpu.icache.demand_mshr_miss_rate::cpu.inst     0.000001                       # mshr miss rate for demand accesses
system.cpu.icache.demand_mshr_miss_rate::total     0.000001                       # mshr miss rate for demand accesses
system.cpu.icache.overall_mshr_miss_rate::cpu.inst     0.000001                       # mshr miss rate for overall accesses
system.cpu.icache.overall_mshr_miss_rate::total     0.000001                       # mshr miss rate for overall accesses
system.cpu.icache.ReadReq_avg_mshr_miss_latency::cpu.inst 286083.098592                       # average ReadReq mshr miss latency
system.cpu.icache.ReadReq_avg_mshr_miss_latency::total 286083.098592                       # average ReadReq mshr miss latency
system.cpu.icache.demand_avg_mshr_miss_latency::cpu.inst 286083.098592                       # average overall mshr miss latency
system.cpu.icache.demand_avg_mshr_miss_latency::total 286083.098592                       # average overall mshr miss latency
system.cpu.icache.overall_avg_mshr_miss_latency::cpu.inst 286083.098592                       # average overall mshr miss latency
system.cpu.icache.overall_avg_mshr_miss_latency::total 286083.098592                       # average overall mshr miss latency
system.cpu.icache.replacements                     46                       # number of replacements
system.cpu.itb_walker_cache.tags.pwrStateResidencyTicks::UNDEFINED 6423757026000                       # Cumulative time (in ticks) in various power states
system.cpu.itb_walker_cache.tags.tagsinuse            0                       # Cycle average of tags in use
system.cpu.itb_walker_cache.tags.total_refs            0                       # Total number of references to valid blocks.
system.cpu.itb_walker_cache.tags.sampled_refs            0                       # Sample count of references to valid blocks.
system.cpu.itb_walker_cache.tags.avg_refs          nan                       # Average number of references to valid blocks.
system.cpu.itb_walker_cache.tags.warmup_cycle            0                       # Cycle when the warmup percentage was hit.
system.cpu.itb_walker_cache.tags.tag_accesses            0                       # Number of tag accesses
system.cpu.itb_walker_cache.tags.data_accesses            0                       # Number of data accesses
system.cpu.itb_walker_cache.pwrStateResidencyTicks::UNDEFINED 6423757026000                       # Cumulative time (in ticks) in various power states
system.cpu.itb_walker_cache.blocked_cycles::no_mshrs            0                       # number of cycles access was blocked
system.cpu.itb_walker_cache.blocked_cycles::no_targets            0                       # number of cycles access was blocked
system.cpu.itb_walker_cache.blocked::no_mshrs            0                       # number of cycles access was blocked
system.cpu.itb_walker_cache.blocked::no_targets            0                       # number of cycles access was blocked
system.cpu.itb_walker_cache.avg_blocked_cycles::no_mshrs          nan                       # average number of cycles each access was blocked
system.cpu.itb_walker_cache.avg_blocked_cycles::no_targets          nan                       # average number of cycles each access was blocked
system.cpu.itb_walker_cache.replacements            0                       # number of replacements
system.l2.tags.pwrStateResidencyTicks::UNDEFINED 6423757026000                       # Cumulative time (in ticks) in various power states
system.l2.tags.tagsinuse                  2044.841570                       # Cycle average of tags in use
system.l2.tags.total_refs                   114126529                       # Total number of references to valid blocks.
system.l2.tags.sampled_refs                    518782                       # Sample count of references to valid blocks.
system.l2.tags.avg_refs                    219.989377                       # Average number of references to valid blocks.
system.l2.tags.warmup_cycle                    428500                       # Cycle when the warmup percentage was hit.
system.l2.tags.occ_blocks::writebacks        0.366650                       # Average occupied blocks per requestor
system.l2.tags.occ_blocks::cpu.inst          1.274584                       # Average occupied blocks per requestor
system.l2.tags.occ_blocks::cpu.data       2043.200335                       # Average occupied blocks per requestor
system.l2.tags.occ_percent::writebacks       0.000179                       # Average percentage of cache occupancy
system.l2.tags.occ_percent::cpu.inst         0.000622                       # Average percentage of cache occupancy
system.l2.tags.occ_percent::cpu.data         0.997656                       # Average percentage of cache occupancy
system.l2.tags.occ_percent::total            0.998458                       # Average percentage of cache occupancy
system.l2.tags.occ_task_id_blocks::1024          2048                       # Occupied blocks per task id
system.l2.tags.age_task_id_blocks_1024::0           26                       # Occupied blocks per task id
system.l2.tags.age_task_id_blocks_1024::1           50                       # Occupied blocks per task id
system.l2.tags.age_task_id_blocks_1024::4         1972                       # Occupied blocks per task id
system.l2.tags.occ_task_id_percent::1024            1                       # Percentage of cache occupancy per task id
system.l2.tags.tag_accesses                 913531174                       # Number of tag accesses
system.l2.tags.data_accesses                913531174                       # Number of data accesses
system.l2.pwrStateResidencyTicks::UNDEFINED 6423757026000                       # Cumulative time (in ticks) in various power states
system.l2.WritebackDirty_hits::writebacks       205629                       # number of WritebackDirty hits
system.l2.WritebackDirty_hits::total           205629                       # number of WritebackDirty hits
system.l2.WritebackClean_hits::writebacks           46                       # number of WritebackClean hits
system.l2.WritebackClean_hits::total               46                       # number of WritebackClean hits
system.l2.WriteClean_hits::writebacks        56496900                       # number of WriteClean hits
system.l2.WriteClean_hits::total             56496900                       # number of WriteClean hits
system.l2.UpgradeReq_hits::cpu.data          28217931                       # number of UpgradeReq hits
system.l2.UpgradeReq_hits::total             28217931                       # number of UpgradeReq hits
system.l2.ReadExReq_hits::cpu.data               1493                       # number of ReadExReq hits
system.l2.ReadExReq_hits::total                  1493                       # number of ReadExReq hits
system.l2.ReadSharedReq_hits::cpu.data         161135                       # number of ReadSharedReq hits
system.l2.ReadSharedReq_hits::total            161135                       # number of ReadSharedReq hits
system.l2.demand_hits::cpu.data                162628                       # number of demand (read+write) hits
system.l2.demand_hits::total                   162628                       # number of demand (read+write) hits
system.l2.overall_hits::cpu.data               162628                       # number of overall hits
system.l2.overall_hits::total                  162628                       # number of overall hits
system.l2.UpgradeReq_misses::cpu.data        28046609                       # number of UpgradeReq misses
system.l2.UpgradeReq_misses::total           28046609                       # number of UpgradeReq misses
system.l2.ReadExReq_misses::cpu.data            65018                       # number of ReadExReq misses
system.l2.ReadExReq_misses::total               65018                       # number of ReadExReq misses
system.l2.ReadCleanReq_misses::cpu.inst           355                       # number of ReadCleanReq misses
system.l2.ReadCleanReq_misses::total              355                       # number of ReadCleanReq misses
system.l2.ReadSharedReq_misses::cpu.data       454964                       # number of ReadSharedReq misses
system.l2.ReadSharedReq_misses::total          454964                       # number of ReadSharedReq misses
system.l2.demand_misses::cpu.inst                 355                       # number of demand (read+write) misses
system.l2.demand_misses::cpu.data              519982                       # number of demand (read+write) misses
system.l2.demand_misses::total                 520337                       # number of demand (read+write) misses
system.l2.overall_misses::cpu.inst                355                       # number of overall misses
system.l2.overall_misses::cpu.data             519982                       # number of overall misses
system.l2.overall_misses::total                520337                       # number of overall misses
system.l2.UpgradeReq_miss_latency::cpu.data 4833686491500                       # number of UpgradeReq miss cycles
system.l2.UpgradeReq_miss_latency::total 4833686491500                       # number of UpgradeReq miss cycles
system.l2.ReadExReq_miss_latency::cpu.data  36413718500                       # number of ReadExReq miss cycles
system.l2.ReadExReq_miss_latency::total   36413718500                       # number of ReadExReq miss cycles
system.l2.ReadCleanReq_miss_latency::cpu.inst    101019000                       # number of ReadCleanReq miss cycles
system.l2.ReadCleanReq_miss_latency::total    101019000                       # number of ReadCleanReq miss cycles
system.l2.ReadSharedReq_miss_latency::cpu.data 188750492000                       # number of ReadSharedReq miss cycles
system.l2.ReadSharedReq_miss_latency::total 188750492000                       # number of ReadSharedReq miss cycles
system.l2.demand_miss_latency::cpu.inst     101019000                       # number of demand (read+write) miss cycles
system.l2.demand_miss_latency::cpu.data  225164210500                       # number of demand (read+write) miss cycles
system.l2.demand_miss_latency::total     225265229500                       # number of demand (read+write) miss cycles
system.l2.overall_miss_latency::cpu.inst    101019000                       # number of overall miss cycles
system.l2.overall_miss_latency::cpu.data 225164210500                       # number of overall miss cycles
system.l2.overall_miss_latency::total    225265229500                       # number of overall miss cycles
system.l2.WritebackDirty_accesses::writebacks       205629                       # number of WritebackDirty accesses(hits+misses)
system.l2.WritebackDirty_accesses::total       205629                       # number of WritebackDirty accesses(hits+misses)
system.l2.WritebackClean_accesses::writebacks           46                       # number of WritebackClean accesses(hits+misses)
system.l2.WritebackClean_accesses::total           46                       # number of WritebackClean accesses(hits+misses)
system.l2.WriteClean_accesses::writebacks     56496900                       # number of WriteClean accesses(hits+misses)
system.l2.WriteClean_accesses::total         56496900                       # number of WriteClean accesses(hits+misses)
system.l2.UpgradeReq_accesses::cpu.data      56264540                       # number of UpgradeReq accesses(hits+misses)
system.l2.UpgradeReq_accesses::total         56264540                       # number of UpgradeReq accesses(hits+misses)
system.l2.ReadExReq_accesses::cpu.data          66511                       # number of ReadExReq accesses(hits+misses)
system.l2.ReadExReq_accesses::total             66511                       # number of ReadExReq accesses(hits+misses)
system.l2.ReadCleanReq_accesses::cpu.inst          355                       # number of ReadCleanReq accesses(hits+misses)
system.l2.ReadCleanReq_accesses::total            355                       # number of ReadCleanReq accesses(hits+misses)
system.l2.ReadSharedReq_accesses::cpu.data       616099                       # number of ReadSharedReq accesses(hits+misses)
system.l2.ReadSharedReq_accesses::total        616099                       # number of ReadSharedReq accesses(hits+misses)
system.l2.demand_accesses::cpu.inst               355                       # number of demand (read+write) accesses
system.l2.demand_accesses::cpu.data            682610                       # number of demand (read+write) accesses
system.l2.demand_accesses::total               682965                       # number of demand (read+write) accesses
system.l2.overall_accesses::cpu.inst              355                       # number of overall (read+write) accesses
system.l2.overall_accesses::cpu.data           682610                       # number of overall (read+write) accesses
system.l2.overall_accesses::total              682965                       # number of overall (read+write) accesses
system.l2.UpgradeReq_miss_rate::cpu.data     0.498478                       # miss rate for UpgradeReq accesses
system.l2.UpgradeReq_miss_rate::total        0.498478                       # miss rate for UpgradeReq accesses
system.l2.ReadExReq_miss_rate::cpu.data      0.977553                       # miss rate for ReadExReq accesses
system.l2.ReadExReq_miss_rate::total         0.977553                       # miss rate for ReadExReq accesses
system.l2.ReadCleanReq_miss_rate::cpu.inst            1                       # miss rate for ReadCleanReq accesses
system.l2.ReadCleanReq_miss_rate::total             1                       # miss rate for ReadCleanReq accesses
system.l2.ReadSharedReq_miss_rate::cpu.data     0.738459                       # miss rate for ReadSharedReq accesses
system.l2.ReadSharedReq_miss_rate::total     0.738459                       # miss rate for ReadSharedReq accesses
system.l2.demand_miss_rate::cpu.inst                1                       # miss rate for demand accesses
system.l2.demand_miss_rate::cpu.data         0.761756                       # miss rate for demand accesses
system.l2.demand_miss_rate::total            0.761879                       # miss rate for demand accesses
system.l2.overall_miss_rate::cpu.inst               1                       # miss rate for overall accesses
system.l2.overall_miss_rate::cpu.data        0.761756                       # miss rate for overall accesses
system.l2.overall_miss_rate::total           0.761879                       # miss rate for overall accesses
system.l2.UpgradeReq_avg_miss_latency::cpu.data 172344.774069                       # average UpgradeReq miss latency
system.l2.UpgradeReq_avg_miss_latency::total 172344.774069                       # average UpgradeReq miss latency
system.l2.ReadExReq_avg_miss_latency::cpu.data 560055.961426                       # average ReadExReq miss latency
system.l2.ReadExReq_avg_miss_latency::total 560055.961426                       # average ReadExReq miss latency
system.l2.ReadCleanReq_avg_miss_latency::cpu.inst 284560.563380                       # average ReadCleanReq miss latency
system.l2.ReadCleanReq_avg_miss_latency::total 284560.563380                       # average ReadCleanReq miss latency
system.l2.ReadSharedReq_avg_miss_latency::cpu.data 414869.070959                       # average ReadSharedReq miss latency
system.l2.ReadSharedReq_avg_miss_latency::total 414869.070959                       # average ReadSharedReq miss latency
system.l2.demand_avg_miss_latency::cpu.inst 284560.563380                       # average overall miss latency
system.l2.demand_avg_miss_latency::cpu.data 433023.086376                       # average overall miss latency
system.l2.demand_avg_miss_latency::total 432921.797796                       # average overall miss latency
system.l2.overall_avg_miss_latency::cpu.inst 284560.563380                       # average overall miss latency
system.l2.overall_avg_miss_latency::cpu.data 433023.086376                       # average overall miss latency
system.l2.overall_avg_miss_latency::total 432921.797796                       # average overall miss latency
system.l2.blocked_cycles::no_mshrs                  0                       # number of cycles access was blocked
system.l2.blocked_cycles::no_targets                0                       # number of cycles access was blocked
system.l2.blocked::no_mshrs                         0                       # number of cycles access was blocked
system.l2.blocked::no_targets                       0                       # number of cycles access was blocked
system.l2.avg_blocked_cycles::no_mshrs            nan                       # average number of cycles each access was blocked
system.l2.avg_blocked_cycles::no_targets          nan                       # average number of cycles each access was blocked
system.l2.writebacks::writebacks               514569                       # number of writebacks
system.l2.writebacks::total                    514569                       # number of writebacks
system.l2.CleanEvict_mshr_misses::writebacks            3                       # number of CleanEvict MSHR misses
system.l2.CleanEvict_mshr_misses::total             3                       # number of CleanEvict MSHR misses
system.l2.UpgradeReq_mshr_misses::cpu.data     28046609                       # number of UpgradeReq MSHR misses
system.l2.UpgradeReq_mshr_misses::total      28046609                       # number of UpgradeReq MSHR misses
system.l2.ReadExReq_mshr_misses::cpu.data        65018                       # number of ReadExReq MSHR misses
system.l2.ReadExReq_mshr_misses::total          65018                       # number of ReadExReq MSHR misses
system.l2.ReadCleanReq_mshr_misses::cpu.inst          355                       # number of ReadCleanReq MSHR misses
system.l2.ReadCleanReq_mshr_misses::total          355                       # number of ReadCleanReq MSHR misses
system.l2.ReadSharedReq_mshr_misses::cpu.data       454964                       # number of ReadSharedReq MSHR misses
system.l2.ReadSharedReq_mshr_misses::total       454964                       # number of ReadSharedReq MSHR misses
system.l2.demand_mshr_misses::cpu.inst            355                       # number of demand (read+write) MSHR misses
system.l2.demand_mshr_misses::cpu.data         519982                       # number of demand (read+write) MSHR misses
system.l2.demand_mshr_misses::total            520337                       # number of demand (read+write) MSHR misses
system.l2.overall_mshr_misses::cpu.inst           355                       # number of overall MSHR misses
system.l2.overall_mshr_misses::cpu.data        519982                       # number of overall MSHR misses
system.l2.overall_mshr_misses::total           520337                       # number of overall MSHR misses
system.l2.UpgradeReq_mshr_miss_latency::cpu.data 4553221099000                       # number of UpgradeReq MSHR miss cycles
system.l2.UpgradeReq_mshr_miss_latency::total 4553221099000                       # number of UpgradeReq MSHR miss cycles
system.l2.ReadExReq_mshr_miss_latency::cpu.data  35763538500                       # number of ReadExReq MSHR miss cycles
system.l2.ReadExReq_mshr_miss_latency::total  35763538500                       # number of ReadExReq MSHR miss cycles
system.l2.ReadCleanReq_mshr_miss_latency::cpu.inst     97469000                       # number of ReadCleanReq MSHR miss cycles
system.l2.ReadCleanReq_mshr_miss_latency::total     97469000                       # number of ReadCleanReq MSHR miss cycles
system.l2.ReadSharedReq_mshr_miss_latency::cpu.data 184200852000                       # number of ReadSharedReq MSHR miss cycles
system.l2.ReadSharedReq_mshr_miss_latency::total 184200852000                       # number of ReadSharedReq MSHR miss cycles
system.l2.demand_mshr_miss_latency::cpu.inst     97469000                       # number of demand (read+write) MSHR miss cycles
system.l2.demand_mshr_miss_latency::cpu.data 219964390500                       # number of demand (read+write) MSHR miss cycles
system.l2.demand_mshr_miss_latency::total 220061859500                       # number of demand (read+write) MSHR miss cycles
system.l2.overall_mshr_miss_latency::cpu.inst     97469000                       # number of overall MSHR miss cycles
system.l2.overall_mshr_miss_latency::cpu.data 219964390500                       # number of overall MSHR miss cycles
system.l2.overall_mshr_miss_latency::total 220061859500                       # number of overall MSHR miss cycles
system.l2.CleanEvict_mshr_miss_rate::writebacks          inf                       # mshr miss rate for CleanEvict accesses
system.l2.CleanEvict_mshr_miss_rate::total          inf                       # mshr miss rate for CleanEvict accesses
system.l2.UpgradeReq_mshr_miss_rate::cpu.data     0.498478                       # mshr miss rate for UpgradeReq accesses
system.l2.UpgradeReq_mshr_miss_rate::total     0.498478                       # mshr miss rate for UpgradeReq accesses
system.l2.ReadExReq_mshr_miss_rate::cpu.data     0.977553                       # mshr miss rate for ReadExReq accesses
system.l2.ReadExReq_mshr_miss_rate::total     0.977553                       # mshr miss rate for ReadExReq accesses
system.l2.ReadCleanReq_mshr_miss_rate::cpu.inst            1                       # mshr miss rate for ReadCleanReq accesses
system.l2.ReadCleanReq_mshr_miss_rate::total            1                       # mshr miss rate for ReadCleanReq accesses
system.l2.ReadSharedReq_mshr_miss_rate::cpu.data     0.738459                       # mshr miss rate for ReadSharedReq accesses
system.l2.ReadSharedReq_mshr_miss_rate::total     0.738459                       # mshr miss rate for ReadSharedReq accesses
system.l2.demand_mshr_miss_rate::cpu.inst            1                       # mshr miss rate for demand accesses
system.l2.demand_mshr_miss_rate::cpu.data     0.761756                       # mshr miss rate for demand accesses
system.l2.demand_mshr_miss_rate::total       0.761879                       # mshr miss rate for demand accesses
system.l2.overall_mshr_miss_rate::cpu.inst            1                       # mshr miss rate for overall accesses
system.l2.overall_mshr_miss_rate::cpu.data     0.761756                       # mshr miss rate for overall accesses
system.l2.overall_mshr_miss_rate::total      0.761879                       # mshr miss rate for overall accesses
system.l2.UpgradeReq_avg_mshr_miss_latency::cpu.data 162344.798938                       # average UpgradeReq mshr miss latency
system.l2.UpgradeReq_avg_mshr_miss_latency::total 162344.798938                       # average UpgradeReq mshr miss latency
system.l2.ReadExReq_avg_mshr_miss_latency::cpu.data 550055.961426                       # average ReadExReq mshr miss latency
system.l2.ReadExReq_avg_mshr_miss_latency::total 550055.961426                       # average ReadExReq mshr miss latency
system.l2.ReadCleanReq_avg_mshr_miss_latency::cpu.inst 274560.563380                       # average ReadCleanReq mshr miss latency
system.l2.ReadCleanReq_avg_mshr_miss_latency::total 274560.563380                       # average ReadCleanReq mshr miss latency
system.l2.ReadSharedReq_avg_mshr_miss_latency::cpu.data 404869.070959                       # average ReadSharedReq mshr miss latency
system.l2.ReadSharedReq_avg_mshr_miss_latency::total 404869.070959                       # average ReadSharedReq mshr miss latency
system.l2.demand_avg_mshr_miss_latency::cpu.inst 274560.563380                       # average overall mshr miss latency
system.l2.demand_avg_mshr_miss_latency::cpu.data 423023.086376                       # average overall mshr miss latency
system.l2.demand_avg_mshr_miss_latency::total 422921.797796                       # average overall mshr miss latency
system.l2.overall_avg_mshr_miss_latency::cpu.inst 274560.563380                       # average overall mshr miss latency
system.l2.overall_avg_mshr_miss_latency::cpu.data 423023.086376                       # average overall mshr miss latency
system.l2.overall_avg_mshr_miss_latency::total 422921.797796                       # average overall mshr miss latency
system.l2.replacements                         516734                       # number of replacements
system.l3.tags.pwrStateResidencyTicks::UNDEFINED 6423757026000                       # Cumulative time (in ticks) in various power states
system.l3.tags.tagsinuse                 16061.616925                       # Cycle average of tags in use
system.l3.tags.total_refs                    57411127                       # Total number of references to valid blocks.
system.l3.tags.sampled_refs                    365195                       # Sample count of references to valid blocks.
system.l3.tags.avg_refs                    157.206772                       # Average number of references to valid blocks.
system.l3.tags.warmup_cycle                    418000                       # Cycle when the warmup percentage was hit.
system.l3.tags.occ_blocks::writebacks      776.982121                       # Average occupied blocks per requestor
system.l3.tags.occ_blocks::cpu.inst          9.256017                       # Average occupied blocks per requestor
system.l3.tags.occ_blocks::cpu.data      15275.378788                       # Average occupied blocks per requestor
system.l3.tags.occ_percent::writebacks       0.047423                       # Average percentage of cache occupancy
system.l3.tags.occ_percent::cpu.inst         0.000565                       # Average percentage of cache occupancy
system.l3.tags.occ_percent::cpu.data         0.932335                       # Average percentage of cache occupancy
system.l3.tags.occ_percent::total            0.980323                       # Average percentage of cache occupancy
system.l3.tags.occ_task_id_blocks::1024         16384                       # Occupied blocks per task id
system.l3.tags.age_task_id_blocks_1024::0           21                       # Occupied blocks per task id
system.l3.tags.age_task_id_blocks_1024::1           41                       # Occupied blocks per task id
system.l3.tags.age_task_id_blocks_1024::4        16322                       # Occupied blocks per task id
system.l3.tags.occ_task_id_percent::1024            1                       # Percentage of cache occupancy per task id
system.l3.tags.tag_accesses                 115187591                       # Number of tag accesses
system.l3.tags.data_accesses                115187591                       # Number of data accesses
system.l3.pwrStateResidencyTicks::UNDEFINED 6423757026000                       # Cumulative time (in ticks) in various power states
system.l3.WritebackDirty_hits::writebacks       514569                       # number of WritebackDirty hits
system.l3.WritebackDirty_hits::total           514569                       # number of WritebackDirty hits
system.l3.WriteClean_hits::writebacks        28327797                       # number of WriteClean hits
system.l3.WriteClean_hits::total             28327797                       # number of WriteClean hits
system.l3.UpgradeReq_hits::cpu.data          14073190                       # number of UpgradeReq hits
system.l3.UpgradeReq_hits::total             14073190                       # number of UpgradeReq hits
system.l3.ReadExReq_hits::cpu.data                570                       # number of ReadExReq hits
system.l3.ReadExReq_hits::total                   570                       # number of ReadExReq hits
system.l3.ReadSharedReq_hits::cpu.data         191784                       # number of ReadSharedReq hits
system.l3.ReadSharedReq_hits::total            191784                       # number of ReadSharedReq hits
system.l3.demand_hits::cpu.data                192354                       # number of demand (read+write) hits
system.l3.demand_hits::total                   192354                       # number of demand (read+write) hits
system.l3.overall_hits::cpu.data               192354                       # number of overall hits
system.l3.overall_hits::total                  192354                       # number of overall hits
system.l3.UpgradeReq_misses::cpu.data        13975001                       # number of UpgradeReq misses
system.l3.UpgradeReq_misses::total           13975001                       # number of UpgradeReq misses
system.l3.ReadExReq_misses::cpu.data            62866                       # number of ReadExReq misses
system.l3.ReadExReq_misses::total               62866                       # number of ReadExReq misses
system.l3.ReadSharedReq_misses::cpu.inst          355                       # number of ReadSharedReq misses
system.l3.ReadSharedReq_misses::cpu.data       263180                       # number of ReadSharedReq misses
system.l3.ReadSharedReq_misses::total          263535                       # number of ReadSharedReq misses
system.l3.demand_misses::cpu.inst                 355                       # number of demand (read+write) misses
system.l3.demand_misses::cpu.data              326046                       # number of demand (read+write) misses
system.l3.demand_misses::total                 326401                       # number of demand (read+write) misses
system.l3.overall_misses::cpu.inst                355                       # number of overall misses
system.l3.overall_misses::cpu.data             326046                       # number of overall misses
system.l3.overall_misses::total                326401                       # number of overall misses
system.l3.UpgradeReq_miss_latency::cpu.data 4096974625500                       # number of UpgradeReq miss cycles
system.l3.UpgradeReq_miss_latency::total 4096974625500                       # number of UpgradeReq miss cycles
system.l3.ReadExReq_miss_latency::cpu.data  35005620000                       # number of ReadExReq miss cycles
system.l3.ReadExReq_miss_latency::total   35005620000                       # number of ReadExReq miss cycles
system.l3.ReadSharedReq_miss_latency::cpu.inst     93564000                       # number of ReadSharedReq miss cycles
system.l3.ReadSharedReq_miss_latency::cpu.data 177182516000                       # number of ReadSharedReq miss cycles
system.l3.ReadSharedReq_miss_latency::total 177276080000                       # number of ReadSharedReq miss cycles
system.l3.demand_miss_latency::cpu.inst      93564000                       # number of demand (read+write) miss cycles
system.l3.demand_miss_latency::cpu.data  212188136000                       # number of demand (read+write) miss cycles
system.l3.demand_miss_latency::total     212281700000                       # number of demand (read+write) miss cycles
system.l3.overall_miss_latency::cpu.inst     93564000                       # number of overall miss cycles
system.l3.overall_miss_latency::cpu.data 212188136000                       # number of overall miss cycles
system.l3.overall_miss_latency::total    212281700000                       # number of overall miss cycles
system.l3.WritebackDirty_accesses::writebacks       514569                       # number of WritebackDirty accesses(hits+misses)
system.l3.WritebackDirty_accesses::total       514569                       # number of WritebackDirty accesses(hits+misses)
system.l3.WriteClean_accesses::writebacks     28327797                       # number of WriteClean accesses(hits+misses)
system.l3.WriteClean_accesses::total         28327797                       # number of WriteClean accesses(hits+misses)
system.l3.UpgradeReq_accesses::cpu.data      28048191                       # number of UpgradeReq accesses(hits+misses)
system.l3.UpgradeReq_accesses::total         28048191                       # number of UpgradeReq accesses(hits+misses)
system.l3.ReadExReq_accesses::cpu.data          63436                       # number of ReadExReq accesses(hits+misses)
system.l3.ReadExReq_accesses::total             63436                       # number of ReadExReq accesses(hits+misses)
system.l3.ReadSharedReq_accesses::cpu.inst          355                       # number of ReadSharedReq accesses(hits+misses)
system.l3.ReadSharedReq_accesses::cpu.data       454964                       # number of ReadSharedReq accesses(hits+misses)
system.l3.ReadSharedReq_accesses::total        455319                       # number of ReadSharedReq accesses(hits+misses)
system.l3.demand_accesses::cpu.inst               355                       # number of demand (read+write) accesses
system.l3.demand_accesses::cpu.data            518400                       # number of demand (read+write) accesses
system.l3.demand_accesses::total               518755                       # number of demand (read+write) accesses
system.l3.overall_accesses::cpu.inst              355                       # number of overall (read+write) accesses
system.l3.overall_accesses::cpu.data           518400                       # number of overall (read+write) accesses
system.l3.overall_accesses::total              518755                       # number of overall (read+write) accesses
system.l3.UpgradeReq_miss_rate::cpu.data     0.498250                       # miss rate for UpgradeReq accesses
system.l3.UpgradeReq_miss_rate::total        0.498250                       # miss rate for UpgradeReq accesses
system.l3.ReadExReq_miss_rate::cpu.data      0.991015                       # miss rate for ReadExReq accesses
system.l3.ReadExReq_miss_rate::total         0.991015                       # miss rate for ReadExReq accesses
system.l3.ReadSharedReq_miss_rate::cpu.inst            1                       # miss rate for ReadSharedReq accesses
system.l3.ReadSharedReq_miss_rate::cpu.data     0.578463                       # miss rate for ReadSharedReq accesses
system.l3.ReadSharedReq_miss_rate::total     0.578792                       # miss rate for ReadSharedReq accesses
system.l3.demand_miss_rate::cpu.inst                1                       # miss rate for demand accesses
system.l3.demand_miss_rate::cpu.data         0.628947                       # miss rate for demand accesses
system.l3.demand_miss_rate::total            0.629201                       # miss rate for demand accesses
system.l3.overall_miss_rate::cpu.inst               1                       # miss rate for overall accesses
system.l3.overall_miss_rate::cpu.data        0.628947                       # miss rate for overall accesses
system.l3.overall_miss_rate::total           0.629201                       # miss rate for overall accesses
system.l3.UpgradeReq_avg_miss_latency::cpu.data 293164.531831                       # average UpgradeReq miss latency
system.l3.UpgradeReq_avg_miss_latency::total 293164.531831                       # average UpgradeReq miss latency
system.l3.ReadExReq_avg_miss_latency::cpu.data 556829.128623                       # average ReadExReq miss latency
system.l3.ReadExReq_avg_miss_latency::total 556829.128623                       # average ReadExReq miss latency
system.l3.ReadSharedReq_avg_miss_latency::cpu.inst 263560.563380                       # average ReadSharedReq miss latency
system.l3.ReadSharedReq_avg_miss_latency::cpu.data 673237.008891                       # average ReadSharedReq miss latency
system.l3.ReadSharedReq_avg_miss_latency::total 672685.146186                       # average ReadSharedReq miss latency
system.l3.demand_avg_miss_latency::cpu.inst 263560.563380                       # average overall miss latency
system.l3.demand_avg_miss_latency::cpu.data 650792.023211                       # average overall miss latency
system.l3.demand_avg_miss_latency::total 650370.862834                       # average overall miss latency
system.l3.overall_avg_miss_latency::cpu.inst 263560.563380                       # average overall miss latency
system.l3.overall_avg_miss_latency::cpu.data 650792.023211                       # average overall miss latency
system.l3.overall_avg_miss_latency::total 650370.862834                       # average overall miss latency
system.l3.blocked_cycles::no_mshrs                  0                       # number of cycles access was blocked
system.l3.blocked_cycles::no_targets                0                       # number of cycles access was blocked
system.l3.blocked::no_mshrs                         0                       # number of cycles access was blocked
system.l3.blocked::no_targets                       0                       # number of cycles access was blocked
system.l3.avg_blocked_cycles::no_mshrs            nan                       # average number of cycles each access was blocked
system.l3.avg_blocked_cycles::no_targets          nan                       # average number of cycles each access was blocked
system.l3.writebacks::writebacks               327966                       # number of writebacks
system.l3.writebacks::total                    327966                       # number of writebacks
system.l3.CleanEvict_mshr_misses::writebacks            9                       # number of CleanEvict MSHR misses
system.l3.CleanEvict_mshr_misses::total             9                       # number of CleanEvict MSHR misses
system.l3.UpgradeReq_mshr_misses::cpu.data     13975001                       # number of UpgradeReq MSHR misses
system.l3.UpgradeReq_mshr_misses::total      13975001                       # number of UpgradeReq MSHR misses
system.l3.ReadExReq_mshr_misses::cpu.data        62866                       # number of ReadExReq MSHR misses
system.l3.ReadExReq_mshr_misses::total          62866                       # number of ReadExReq MSHR misses
system.l3.ReadSharedReq_mshr_misses::cpu.inst          355                       # number of ReadSharedReq MSHR misses
system.l3.ReadSharedReq_mshr_misses::cpu.data       263180                       # number of ReadSharedReq MSHR misses
system.l3.ReadSharedReq_mshr_misses::total       263535                       # number of ReadSharedReq MSHR misses
system.l3.demand_mshr_misses::cpu.inst            355                       # number of demand (read+write) MSHR misses
system.l3.demand_mshr_misses::cpu.data         326046                       # number of demand (read+write) MSHR misses
system.l3.demand_mshr_misses::total            326401                       # number of demand (read+write) MSHR misses
system.l3.overall_mshr_misses::cpu.inst           355                       # number of overall MSHR misses
system.l3.overall_mshr_misses::cpu.data        326046                       # number of overall MSHR misses
system.l3.overall_mshr_misses::total           326401                       # number of overall MSHR misses
system.l3.UpgradeReq_mshr_miss_latency::cpu.data 3957226630500                       # number of UpgradeReq MSHR miss cycles
system.l3.UpgradeReq_mshr_miss_latency::total 3957226630500                       # number of UpgradeReq MSHR miss cycles
system.l3.ReadExReq_mshr_miss_latency::cpu.data  34376960000                       # number of ReadExReq MSHR miss cycles
system.l3.ReadExReq_mshr_miss_latency::total  34376960000                       # number of ReadExReq MSHR miss cycles
system.l3.ReadSharedReq_mshr_miss_latency::cpu.inst     90014000                       # number of ReadSharedReq MSHR miss cycles
system.l3.ReadSharedReq_mshr_miss_latency::cpu.data 174550716000                       # number of ReadSharedReq MSHR miss cycles
system.l3.ReadSharedReq_mshr_miss_latency::total 174640730000                       # number of ReadSharedReq MSHR miss cycles
system.l3.demand_mshr_miss_latency::cpu.inst     90014000                       # number of demand (read+write) MSHR miss cycles
system.l3.demand_mshr_miss_latency::cpu.data 208927676000                       # number of demand (read+write) MSHR miss cycles
system.l3.demand_mshr_miss_latency::total 209017690000                       # number of demand (read+write) MSHR miss cycles
system.l3.overall_mshr_miss_latency::cpu.inst     90014000                       # number of overall MSHR miss cycles
system.l3.overall_mshr_miss_latency::cpu.data 208927676000                       # number of overall MSHR miss cycles
system.l3.overall_mshr_miss_latency::total 209017690000                       # number of overall MSHR miss cycles
system.l3.CleanEvict_mshr_miss_rate::writebacks          inf                       # mshr miss rate for CleanEvict accesses
system.l3.CleanEvict_mshr_miss_rate::total          inf                       # mshr miss rate for CleanEvict accesses
system.l3.UpgradeReq_mshr_miss_rate::cpu.data     0.498250                       # mshr miss rate for UpgradeReq accesses
system.l3.UpgradeReq_mshr_miss_rate::total     0.498250                       # mshr miss rate for UpgradeReq accesses
system.l3.ReadExReq_mshr_miss_rate::cpu.data     0.991015                       # mshr miss rate for ReadExReq accesses
system.l3.ReadExReq_mshr_miss_rate::total     0.991015                       # mshr miss rate for ReadExReq accesses
system.l3.ReadSharedReq_mshr_miss_rate::cpu.inst            1                       # mshr miss rate for ReadSharedReq accesses
system.l3.ReadSharedReq_mshr_miss_rate::cpu.data     0.578463                       # mshr miss rate for ReadSharedReq accesses
system.l3.ReadSharedReq_mshr_miss_rate::total     0.578792                       # mshr miss rate for ReadSharedReq accesses
system.l3.demand_mshr_miss_rate::cpu.inst            1                       # mshr miss rate for demand accesses
system.l3.demand_mshr_miss_rate::cpu.data     0.628947                       # mshr miss rate for demand accesses
system.l3.demand_mshr_miss_rate::total       0.629201                       # mshr miss rate for demand accesses
system.l3.overall_mshr_miss_rate::cpu.inst            1                       # mshr miss rate for overall accesses
system.l3.overall_mshr_miss_rate::cpu.data     0.628947                       # mshr miss rate for overall accesses
system.l3.overall_mshr_miss_rate::total      0.629201                       # mshr miss rate for overall accesses
system.l3.UpgradeReq_avg_mshr_miss_latency::cpu.data 283164.676017                       # average UpgradeReq mshr miss latency
system.l3.UpgradeReq_avg_mshr_miss_latency::total 283164.676017                       # average UpgradeReq mshr miss latency
system.l3.ReadExReq_avg_mshr_miss_latency::cpu.data 546829.128623                       # average ReadExReq mshr miss latency
system.l3.ReadExReq_avg_mshr_miss_latency::total 546829.128623                       # average ReadExReq mshr miss latency
system.l3.ReadSharedReq_avg_mshr_miss_latency::cpu.inst 253560.563380                       # average ReadSharedReq mshr miss latency
system.l3.ReadSharedReq_avg_mshr_miss_latency::cpu.data 663237.008891                       # average ReadSharedReq mshr miss latency
system.l3.ReadSharedReq_avg_mshr_miss_latency::total 662685.146186                       # average ReadSharedReq mshr miss latency
system.l3.demand_avg_mshr_miss_latency::cpu.inst 253560.563380                       # average overall mshr miss latency
system.l3.demand_avg_mshr_miss_latency::cpu.data 640792.023211                       # average overall mshr miss latency
system.l3.demand_avg_mshr_miss_latency::total 640370.862834                       # average overall mshr miss latency
system.l3.overall_avg_mshr_miss_latency::cpu.inst 253560.563380                       # average overall mshr miss latency
system.l3.overall_avg_mshr_miss_latency::cpu.data 640792.023211                       # average overall mshr miss latency
system.l3.overall_avg_mshr_miss_latency::total 640370.862834                       # average overall mshr miss latency
system.l3.replacements                         348811                       # number of replacements
system.membus.snoop_filter.tot_requests      14635773                       # Total number of requests made to the snoop filter.
system.membus.snoop_filter.hit_single_requests     14309590                       # Number of requests hitting in the snoop filter with a single holder of the requested data.
system.membus.snoop_filter.hit_multi_requests            0                       # Number of requests hitting in the snoop filter with multiple (>1) holders of the requested data.
system.membus.snoop_filter.tot_snoops               0                       # Total number of snoops made to the snoop filter.
system.membus.snoop_filter.hit_single_snoops            0                       # Number of snoops hitting in the snoop filter with a single holder of the requested data.
system.membus.snoop_filter.hit_multi_snoops            0                       # Number of snoops hitting in the snoop filter with multiple (>1) holders of the requested data.
system.membus.pwrStateResidencyTicks::UNDEFINED 6423757026000                       # Cumulative time (in ticks) in various power states
system.membus.trans_dist::ReadResp             263535                       # Transaction distribution
system.membus.trans_dist::WritebackDirty       327966                       # Transaction distribution
system.membus.trans_dist::WriteClean         14227541                       # Transaction distribution
system.membus.trans_dist::CleanEvict               60                       # Transaction distribution
system.membus.trans_dist::UpgradeReq         13975219                       # Transaction distribution
system.membus.trans_dist::ReadExReq             62648                       # Transaction distribution
system.membus.trans_dist::ReadExResp            62648                       # Transaction distribution
system.membus.trans_dist::ReadSharedReq        263535                       # Transaction distribution
system.membus.pkt_count_system.l3.mem_side::system.mem_ctrls.port     29183152                       # Packet count per connected master and slave (bytes)
system.membus.pkt_count_system.l3.mem_side::total     29183152                       # Packet count per connected master and slave (bytes)
system.membus.pkt_count::total               29183152                       # Packet count per connected master and slave (bytes)
system.membus.pkt_size_system.l3.mem_side::system.mem_ctrls.port    952428160                       # Cumulative packet size per connected master and slave (bytes)
system.membus.pkt_size_system.l3.mem_side::total    952428160                       # Cumulative packet size per connected master and slave (bytes)
system.membus.pkt_size::total               952428160                       # Cumulative packet size per connected master and slave (bytes)
system.membus.snoops                                0                       # Total snoops (count)
system.membus.snoopTraffic                          0                       # Total snoop traffic (bytes)
system.membus.snoop_fanout::samples          14301402                       # Request fanout histogram
system.membus.snoop_fanout::mean                    0                       # Request fanout histogram
system.membus.snoop_fanout::stdev                   0                       # Request fanout histogram
system.membus.snoop_fanout::underflows              0      0.00%      0.00% # Request fanout histogram
system.membus.snoop_fanout::0                14301402    100.00%    100.00% # Request fanout histogram
system.membus.snoop_fanout::1                       0      0.00%    100.00% # Request fanout histogram
system.membus.snoop_fanout::overflows               0      0.00%    100.00% # Request fanout histogram
system.membus.snoop_fanout::min_value               0                       # Request fanout histogram
system.membus.snoop_fanout::max_value               0                       # Request fanout histogram
system.membus.snoop_fanout::total            14301402                       # Request fanout histogram
system.membus.reqLayer2.occupancy        105589706500                       # Layer occupancy (ticks)
system.membus.reqLayer2.utilization               1.6                       # Layer utilization (%)
system.membus.respLayer1.occupancy         1646223000                       # Layer occupancy (ticks)
system.membus.respLayer1.utilization              0.0                       # Layer utilization (%)
system.tol2bus.snoop_filter.tot_requests     57629649                       # Total number of requests made to the snoop filter.
system.tol2bus.snoop_filter.hit_single_requests     56946684                       # Number of requests hitting in the snoop filter with a single holder of the requested data.
system.tol2bus.snoop_filter.hit_multi_requests            0                       # Number of requests hitting in the snoop filter with multiple (>1) holders of the requested data.
system.tol2bus.snoop_filter.tot_snoops       42567749                       # Total number of snoops made to the snoop filter.
system.tol2bus.snoop_filter.hit_single_snoops     42567749                       # Number of snoops hitting in the snoop filter with a single holder of the requested data.
system.tol2bus.snoop_filter.hit_multi_snoops            0                       # Number of snoops hitting in the snoop filter with multiple (>1) holders of the requested data.
system.tol2bus.pwrStateResidencyTicks::UNDEFINED 6423757026000                       # Cumulative time (in ticks) in various power states
system.tol2bus.trans_dist::ReadResp            616454                       # Transaction distribution
system.tol2bus.trans_dist::WritebackDirty       738710                       # Transaction distribution
system.tol2bus.trans_dist::WritebackClean           46                       # Transaction distribution
system.tol2bus.trans_dist::WriteClean        99052238                       # Transaction distribution
system.tol2bus.trans_dist::CleanEvict          499428                       # Transaction distribution
system.tol2bus.trans_dist::UpgradeReq        56264540                       # Transaction distribution
system.tol2bus.trans_dist::UpgradeResp       56264540                       # Transaction distribution
system.tol2bus.trans_dist::ReadExReq            66511                       # Transaction distribution
system.tol2bus.trans_dist::ReadExResp           66511                       # Transaction distribution
system.tol2bus.trans_dist::ReadCleanReq           355                       # Transaction distribution
system.tol2bus.trans_dist::ReadSharedReq       616099                       # Transaction distribution
system.tol2bus.pkt_count_system.cpu.icache.mem_side::system.l2.cpu_side          756                       # Packet count per connected master and slave (bytes)
system.tol2bus.pkt_count_system.cpu.dcache.mem_side::system.l2.cpu_side    171073298                       # Packet count per connected master and slave (bytes)
system.tol2bus.pkt_count::total             171074054                       # Packet count per connected master and slave (bytes)
system.tol2bus.pkt_size_system.cpu.icache.mem_side::system.l2.cpu_side        25664                       # Cumulative packet size per connected master and slave (bytes)
system.tol2bus.pkt_size_system.cpu.dcache.mem_side::system.l2.cpu_side   3672648896                       # Cumulative packet size per connected master and slave (bytes)
system.tol2bus.pkt_size::total             3672674560                       # Cumulative packet size per connected master and slave (bytes)
system.tol2bus.snoops                        43111378                       # Total snoops (count)
system.tol2bus.snoopTraffic                2757658816                       # Total snoop traffic (bytes)
system.tol2bus.snoop_fanout::samples        100058883                       # Request fanout histogram
system.tol2bus.snoop_fanout::mean            0.425427                       # Request fanout histogram
system.tol2bus.snoop_fanout::stdev           0.494408                       # Request fanout histogram
system.tol2bus.snoop_fanout::underflows             0      0.00%      0.00% # Request fanout histogram
system.tol2bus.snoop_fanout::0               57491134     57.46%     57.46% # Request fanout histogram
system.tol2bus.snoop_fanout::1               42567749     42.54%    100.00% # Request fanout histogram
system.tol2bus.snoop_fanout::2                      0      0.00%    100.00% # Request fanout histogram
system.tol2bus.snoop_fanout::3                      0      0.00%    100.00% # Request fanout histogram
system.tol2bus.snoop_fanout::4                      0      0.00%    100.00% # Request fanout histogram
system.tol2bus.snoop_fanout::overflows              0      0.00%    100.00% # Request fanout histogram
system.tol2bus.snoop_fanout::min_value              0                       # Request fanout histogram
system.tol2bus.snoop_fanout::max_value              1                       # Request fanout histogram
system.tol2bus.snoop_fanout::total          100058883                       # Request fanout histogram
system.tol2bus.reqLayer0.occupancy       113765849500                       # Layer occupancy (ticks)
system.tol2bus.reqLayer0.utilization              1.8                       # Layer utilization (%)
system.tol2bus.respLayer0.occupancy            532500                       # Layer occupancy (ticks)
system.tol2bus.respLayer0.utilization             0.0                       # Layer utilization (%)
system.tol2bus.respLayer1.occupancy       29156185000                       # Layer occupancy (ticks)
system.tol2bus.respLayer1.utilization             0.5                       # Layer utilization (%)
system.tol3bus.snoop_filter.tot_requests     29083401                       # Total number of requests made to the snoop filter.
system.tol3bus.snoop_filter.hit_single_requests     28564646                       # Number of requests hitting in the snoop filter with a single holder of the requested data.
system.tol3bus.snoop_filter.hit_multi_requests            0                       # Number of requests hitting in the snoop filter with multiple (>1) holders of the requested data.
system.tol3bus.snoop_filter.tot_snoops       14266847                       # Total number of snoops made to the snoop filter.
system.tol3bus.snoop_filter.hit_single_snoops     14266847                       # Number of snoops hitting in the snoop filter with a single holder of the requested data.
system.tol3bus.snoop_filter.hit_multi_snoops            0                       # Number of snoops hitting in the snoop filter with multiple (>1) holders of the requested data.
system.tol3bus.pwrStateResidencyTicks::UNDEFINED 6423757026000                       # Cumulative time (in ticks) in various power states
system.tol3bus.trans_dist::ReadResp            455319                       # Transaction distribution
system.tol3bus.trans_dist::WritebackDirty       842535                       # Transaction distribution
system.tol3bus.trans_dist::WriteClean        42555338                       # Transaction distribution
system.tol3bus.trans_dist::CleanEvict           22731                       # Transaction distribution
system.tol3bus.trans_dist::UpgradeReq        28048191                       # Transaction distribution
system.tol3bus.trans_dist::UpgradeResp       28048191                       # Transaction distribution
system.tol3bus.trans_dist::ReadExReq            63436                       # Transaction distribution
system.tol3bus.trans_dist::ReadExResp           63436                       # Transaction distribution
system.tol3bus.trans_dist::ReadSharedReq       455319                       # Transaction distribution
system.tol3bus.pkt_count_system.l2.mem_side::system.l3.cpu_side     85978144                       # Packet count per connected master and slave (bytes)
system.tol3bus.pkt_size_system.l2.mem_side::system.l3.cpu_side   1879111744                       # Cumulative packet size per connected master and slave (bytes)
system.tol3bus.snoops                        14576352                       # Total snoops (count)
system.tol3bus.snoopTraffic                 931552448                       # Total snoop traffic (bytes)
system.tol3bus.snoop_fanout::samples         43143298                       # Request fanout histogram
system.tol3bus.snoop_fanout::mean            0.330685                       # Request fanout histogram
system.tol3bus.snoop_fanout::stdev           0.470460                       # Request fanout histogram
system.tol3bus.snoop_fanout::underflows             0      0.00%      0.00% # Request fanout histogram
system.tol3bus.snoop_fanout::0               28876451     66.93%     66.93% # Request fanout histogram
system.tol3bus.snoop_fanout::1               14266847     33.07%    100.00% # Request fanout histogram
system.tol3bus.snoop_fanout::overflows              0      0.00%    100.00% # Request fanout histogram
system.tol3bus.snoop_fanout::min_value              0                       # Request fanout histogram
system.tol3bus.snoop_fanout::max_value              1                       # Request fanout histogram
system.tol3bus.snoop_fanout::total           43143298                       # Request fanout histogram
system.tol3bus.reqLayer0.occupancy        57547965000                       # Layer occupancy (ticks)
system.tol3bus.reqLayer0.utilization              0.9                       # Layer utilization (%)
system.tol3bus.respLayer0.occupancy       14802228000                       # Layer occupancy (ticks)
system.tol3bus.respLayer0.utilization             0.2                       # Layer utilization (%)

---------- End Simulation Statistics   ----------
